5
Lattice="1.0 0.0 0.0 0.0 1.0 0.0 0.0 0.0 1.0" Properties=species:S:1:pos:R:3:initial_magmoms:R:1:forces:R:3 energy=-2117.77867271586 free_energy=-2117.77867271586 pbc="F F F"
C        0.04979800      -0.57627200       0.00000000       0.00000000       0.15697442      -0.99883935       0.00000000
C        0.04979800       0.71098800       0.00000000       1.00000000      -0.04170907       1.16414205      -0.00000000
H       -0.87675000      -1.15184400       0.00000000       0.00000000      -0.25947249      -0.19803171      -0.00000000
H        0.96918300      -1.15463900       0.00000000       0.00000000       0.22160205      -0.21235446      -0.00000000
H       -0.69001300       1.49818500       0.00000000       0.00000000      -0.07739492       0.24508347      -0.00000000
